/*--------------------------------*- C++ -*----------------------------------*\
| =========                 |                                                 |
| \\      /  F ield         | OpenFOAM: The Open Source CFD Toolbox           |
|  \\    /   O peration     | Version:  v2012                                 |
|   \\  /    A nd           | Website:  www.openfoam.com                      |
|    \\/     M anipulation  |                                                 |
\*---------------------------------------------------------------------------*/
FoamFile
{
    version     2.0;
    format      ascii;
    class       dictionary;
    location    "system";
    object      controlDict;
}
// * * * * * * * * * * * * * * * * * * * * * * * * * * * * * * * * * * * * * //

application     simpleFoam;

startFrom       startTime;//latestTime;

startTime       0;

stopAt          endTime;

endTime         10000;

deltaT          1;

writeControl    adjustable;

writeInterval   250;

purgeWrite      0;

writeFormat     binary;

writePrecision  6;

writeCompression off;

timeFormat      general;

timePrecision   6;

runTimeModifiable true;
/*
// Time step control

adjustTimeStep  yes;

maxCo           0.9;

//maxAlphaCo      0.8;

maxDeltaT       0.5;
*/

functions

{

                forcesCylinder

                {

                                // Mandatory entries

                                type            forces;

                                libs            ("libforces.so");

                                log              yes;

                                patches         (cylinder);

                                outputControl   timeStep;

                                outputIntervall 1;

               

               

                                // Optional entries

               

                                // Field names

                                p               p;

                                U               U;

                                rho         rhoInf;

                                rhoInf      1000;

               

                                // Reference pressure [Pa]

                                pRef            101300;

               

                                // Include porosity effects?

                                porosity        no;

               

                                // Store and write volume field representations of forces and moments

                                writeFields     no;

               

                                // Centre of rotation for moment calculations

                                CofR            (0 0 0);

               

                                // Spatial data binning

                                // - extents given by the bounds of the input geometry

                                binData

                                {

                                                nBin        20;

                                                direction   (1 0 0);

                                                cumulative  yes;

                                }

                }
				yPlus1
				{
									// Mandatory entries (unmodifiable)
									type        yPlus;
									libs        ("libfieldFunctionObjects.so");
								
									// Optional (inherited) entries
									executeControl  writeTime;
									writeControl    writeTime;
				}
				
				courantNo
				{
					type            CourantNo;
					libs            ("libfieldFunctionObjects.so");

					field           phi;

					executeControl  writeTime;
					writeControl    writeTime;
				}
}

// ************************************************************************* //
