/*--------------------------------*- C++ -*----------------------------------*\
| =========                 |                                                 |
| \\      /  F ield         | OpenFOAM: The Open Source CFD Toolbox           |
|  \\    /   O peration     | Version:  v2012                                 |
|   \\  /    A nd           | Website:  www.openfoam.com                      |
|    \\/     M anipulation  |                                                 |
\*---------------------------------------------------------------------------*/
FoamFile
{
    version     2.0;
    format      ascii;
    class       dictionary;
    location    "system";
    object      controlDict;
}
// * * * * * * * * * * * * * * * * * * * * * * * * * * * * * * * * * * * * * //

application     pimpleFoam;

startFrom       latestTime;//startTime;

startTime       500;

stopAt          endTime;

endTime         2590;

deltaT          0.0001;

writeControl    adjustable;

writeInterval   1;

purgeWrite      0;

writeFormat     binary;
//writeFormat     ascii;

writePrecision  6;

writeCompression off;

timeFormat      general;

timePrecision   6;

runTimeModifiable true;

// Time step control
adjustTimeStep  yes;
maxCo           20;
maxAlphaCo      20;
maxDeltaT       0.5;

functions
{
    forcesCylinder
    {
        // Mandatory entries
        type            forces;
        libs            ("libforces.so");
        log              yes;
        patches         (cylinder);
        writeControl    writeTime;//timeStep;
        writeInterval   2;
        // Optional entrie
        // Field names
        p               p;
        U               U;
        rho             rhoInf;
        rhoInf          1000;
        // Reference pressure [Pa]
        pRef            101300;
        // Include porosity effects?
        porosity        no;
        // Store and write volume field representations of forces and moments
        writeFields     no;
        // Centre of rotation for moment calculations
        CofR            (0 0 0);
        // Spatial data binning
        // - extents given by the bounds of the input geometry
        binData
        {
            nBin        20;
            direction   (1 0 0);
            cumulative  yes;
        }
    }

    forcesMount
    {
        // Mandatory entries
        type            forces;
        libs            ("libforces.so");
        log              yes;
        patches         (mount);
        writeControl    writeTime;//timeStep;
        writeInterval   2;
        // Optional entrie
        // Field names
        p               p;
        U               U;
        rho             rhoInf;
        rhoInf          1000;
        // Reference pressure [Pa]
        pRef            101300;
        // Include porosity effects?
        porosity        no;
        // Store and write volume field representations of forces and moments
        writeFields     no;
        // Centre of rotation for moment calculations
        CofR            (0 0 0);
        // Spatial data binning
        // - extents given by the bounds of the input geometry
        binData
        {
            nBin        20;
            direction   (1 0 0);
            cumulative  yes;
        }
    }
    
    yPlus
    {
        type            yPlus;
        libs            ("libfieldFunctionObjects.so");
        writeControl    writeTime;
        //patches         (cylinder);
    }
					
	courantNo
	{
		type            CourantNo;
		libs            ("libfieldFunctionObjects.so");
		field           phi;
		executeControl  writeTime;
		writeControl    writeTime;
	}
    
    solverInfo
    {
        type            solverInfo;
        libs            ("libutilityFunctionObjects.so");
        fields          ("U|p"); //(".*"); 
        writeControl    writeTime;
        //writeResidualFields yes;
    }
    

    wallShearStress
    {
        type            wallShearStress;
        libs            ("libfieldFunctionObjects.so");
        writeControl    writeTime;
        patches         (cylinder);
    }

}

// ************************************************************************* //